
  -OEChem-07181914473D

226237  0     1  0  0  0  0  0999 V2000
   25.9390   95.8920   29.1580 C   0  0  0  0  0  0  0  0  0  0  0  0
   24.9250   95.3390   28.1360 C   0  0  0  0  0  0  0  0  0  0  0  0
   25.3950   94.0640   27.4090 C   0  0  1  0  0  0  0  0  0  0  0  0
   24.9830   94.0940   26.0570 O   0  0  0  0  0  0  0  0  0  0  0  0
   26.9170   93.9100   27.4770 C   0  0  0  0  0  0  0  0  0  0  0  0
   27.4520   93.8580   28.9310 C   0  0  1  0  0  0  0  0  0  0  0  0
   28.9630   94.1220   28.8400 C   0  0  0  0  0  0  0  0  0  0  0  0
   29.6790   94.0050   30.1940 C   0  0  1  0  0  0  0  0  0  0  0  0
   30.9150   94.6780   30.0290 O   0  0  0  0  0  0  0  0  0  0  0  0
   28.8360   94.5160   31.3990 C   0  0  1  0  0  0  0  0  0  0  0  0
   29.7050   95.1300   32.5270 C   0  0  2  0  0  0  0  0  0  0  0  0
   30.7680   94.2320   33.1680 C   0  0  0  0  0  0  0  0  0  0  0  0
   31.1360   94.9620   34.4670 C   0  0  0  0  0  0  0  0  0  0  0  0
   30.1270   96.1230   34.6260 C   0  0  2  0  0  0  0  0  0  0  0  0
   29.9710   96.6410   36.0910 C   0  0  1  0  0  0  0  0  0  0  0  0
   29.1230   97.9360   36.1230 C   0  0  0  0  0  0  0  0  0  0  0  0
   29.4820   98.7570   37.3830 C   0  0  0  0  0  0  0  0  0  0  0  0
   28.6470  100.0220   37.3130 C   0  0  0  0  0  0  0  0  0  0  0  0
   29.4600   95.6380   37.1510 C   0  0  0  0  0  0  0  0  0  0  0  0
   28.9210   95.6890   33.7360 C   0  0  2  0  0  0  0  0  0  0  0  0
   28.0480   94.6210   34.4550 C   0  0  0  0  0  0  0  0  0  0  0  0
   27.9900   96.8080   33.1950 C   0  0  1  0  0  0  0  0  0  0  0  0
   28.6970   97.9140   32.6620 O   0  0  0  0  0  0  0  0  0  0  0  0
   27.0400   96.2670   32.1080 C   0  0  0  0  0  0  0  0  0  0  0  0
   27.7290   95.5080   30.9330 C   0  0  2  0  0  0  0  0  0  0  0  0
   26.7190   94.8050   29.9470 C   0  0  1  0  0  0  0  0  0  0  0  0
   25.6840   93.9420   30.7260 C   0  0  0  0  0  0  0  0  0  0  0  0
   28.8010  100.8610   36.4450 O   0  0  0  0  0  0  0  0  0  0  0  0
   25.6260  112.0850   33.8520 C   0  0  2  0  0  0  0  0  0  0  0  0
   24.7370  111.4890   34.8380 O   0  0  0  0  0  0  0  0  0  0  0  0
   25.9130  111.0610   32.7310 C   0  0  2  0  0  0  0  0  0  0  0  0
   24.6740  110.7160   32.1430 O   0  0  0  0  0  0  0  0  0  0  0  0
   26.6240  109.8250   33.3130 C   0  0  1  0  0  0  0  0  0  0  0  0
   26.9510  108.9380   32.2620 O   0  0  0  0  0  0  0  0  0  0  0  0
   27.9130  110.2500   34.0370 C   0  0  1  0  0  0  0  0  0  0  0  0
   27.5780  111.2670   35.1460 C   0  0  2  0  0  0  0  0  0  0  0  0
   26.8820  112.3820   34.5210 O   0  0  0  0  0  0  0  0  0  0  0  0
   28.7960  111.8550   35.8720 C   0  0  0  0  0  0  0  0  0  0  0  0
   29.7350  112.4070   34.9720 O   0  0  0  0  0  0  0  0  0  0  0  0
   21.3180  112.6360   37.0440 C   0  0  2  0  0  0  0  0  0  0  0  0
   21.7990  111.8520   38.1710 O   0  0  0  0  0  0  0  0  0  0  0  0
   21.1080  111.7120   35.8240 C   0  0  2  0  0  0  0  0  0  0  0  0
   20.1690  110.7220   36.1980 O   0  0  0  0  0  0  0  0  0  0  0  0
   22.4460  111.0780   35.4050 C   0  0  1  0  0  0  0  0  0  0  0  0
   22.2520  110.2930   34.2450 O   0  0  0  0  0  0  0  0  0  0  0  0
   23.4830  112.1720   35.1010 C   0  0  1  0  0  0  0  0  0  0  0  0
   23.6620  113.0800   36.3350 C   0  0  2  0  0  0  0  0  0  0  0  0
   22.3500  113.6030   36.7080 O   0  0  0  0  0  0  0  0  0  0  0  0
   24.5710  114.2990   36.1210 C   0  0  0  0  0  0  0  0  0  0  0  0
   24.1520  115.0840   35.0240 O   0  0  0  0  0  0  0  0  0  0  0  0
   21.3140  111.4970   42.3240 C   0  0  2  0  0  0  0  0  0  0  0  0
   22.0690  110.2550   42.2130 O   0  0  0  0  0  0  0  0  0  0  0  0
   20.0310  111.3960   41.4730 C   0  0  2  0  0  0  0  0  0  0  0  0
   19.2600  110.3300   41.9910 O   0  0  0  0  0  0  0  0  0  0  0  0
   20.4000  111.1560   39.9980 C   0  0  1  0  0  0  0  0  0  0  0  0
   19.2200  111.1610   39.2180 O   0  0  0  0  0  0  0  0  0  0  0  0
   21.3440  112.2590   39.4860 C   0  0  1  0  0  0  0  0  0  0  0  0
   22.5850  112.3910   40.3910 C   0  0  2  0  0  0  0  0  0  0  0  0
   22.1330  112.5580   41.7650 O   0  0  0  0  0  0  0  0  0  0  0  0
   23.4660  113.6040   40.0600 C   0  0  0  0  0  0  0  0  0  0  0  0
   22.7490  114.8190   40.1380 O   0  0  0  0  0  0  0  0  0  0  0  0
   24.0910  107.5970   44.8130 C   0  0  2  0  0  0  0  0  0  0  0  0
   25.0740  107.3040   43.7810 O   0  0  0  0  0  0  0  0  0  0  0  0
   22.6830  107.1940   44.3200 C   0  0  2  0  0  0  0  0  0  0  0  0
   22.7200  105.8170   44.0020 O   0  0  0  0  0  0  0  0  0  0  0  0
   22.2870  108.0370   43.0960 C   0  0  1  0  0  0  0  0  0  0  0  0
   20.9690  107.7070   42.7050 O   0  0  0  0  0  0  0  0  0  0  0  0
   22.3500  109.5350   43.4400 C   0  0  1  0  0  0  0  0  0  0  0  0
   23.7730  109.8950   43.9100 C   0  0  2  0  0  0  0  0  0  0  0  0
   24.1060  109.0340   45.0410 O   0  0  0  0  0  0  0  0  0  0  0  0
   23.9520  111.3430   44.3930 C   0  0  0  0  0  0  0  0  0  0  0  0
   23.0360  111.6750   45.4160 O   0  0  0  0  0  0  0  0  0  0  0  0
   28.9850  105.7970   43.4100 C   0  0  2  0  0  0  0  0  0  0  0  0
   28.7450  105.7320   41.9760 O   0  0  0  0  0  0  0  0  0  0  0  0
   27.9640  104.9020   44.1440 C   0  0  2  0  0  0  0  0  0  0  0  0
   28.1620  103.5750   43.6970 O   0  0  0  0  0  0  0  0  0  0  0  0
   26.5330  105.3890   43.8500 C   0  0  1  0  0  0  0  0  0  0  0  0
   25.6170  104.6140   44.5970 O   0  0  0  0  0  0  0  0  0  0  0  0
   26.3800  106.8700   44.2410 C   0  0  1  0  0  0  0  0  0  0  0  0
   27.4420  107.7360   43.5360 C   0  0  2  0  0  0  0  0  0  0  0  0
   28.7520  107.1690   43.8280 O   0  0  0  0  0  0  0  0  0  0  0  0
   27.4700  109.1950   44.0130 C   0  0  0  0  0  0  0  0  0  0  0  0
   27.6640  109.2940   45.4090 O   0  0  0  0  0  0  0  0  0  0  0  0
   31.0090  105.3880   38.4290 C   0  0  2  0  0  0  0  0  0  0  0  0
   30.0600  106.2720   37.7640 O   0  0  0  0  0  0  0  0  0  0  0  0
   30.2740  104.1280   38.9320 C   0  0  2  0  0  0  0  0  0  0  0  0
   29.6970  103.4990   37.8050 O   0  0  0  0  0  0  0  0  0  0  0  0
   29.2020  104.5210   39.9610 C   0  0  2  0  0  0  0  0  0  0  0  0
   29.8390  105.2870   41.1330 C   0  0  1  0  0  0  0  0  0  0  0  0
   30.5860  106.5290   40.6010 C   0  0  2  0  0  0  0  0  0  0  0  0
   31.5390  106.0920   39.5840 O   0  0  0  0  0  0  0  0  0  0  0  0
   31.4000  107.2950   41.6550 C   0  0  0  0  0  0  0  0  0  0  0  0
   32.3300  106.4600   42.3120 O   0  0  0  0  0  0  0  0  0  0  0  0
   28.5530  103.3110   40.4520 N   0  0  0  0  0  0  0  0  0  0  0  0
   27.2260  103.1470   40.5680 C   0  0  0  0  0  0  0  0  0  0  0  0
   26.7500  101.7280   40.8940 C   0  0  0  0  0  0  0  0  0  0  0  0
   25.9190  101.2020   39.7000 C   0  0  0  0  0  0  0  0  0  0  0  0
   26.8020  101.2360   38.4630 C   0  0  0  0  0  0  0  0  0  0  0  0
   27.6940  100.1780   38.3160 N   0  0  0  0  0  0  0  0  0  0  0  0
   26.4100  104.0540   40.4010 O   0  0  0  0  0  0  0  0  0  0  0  0
   26.7540  102.1460   37.6550 O   0  0  0  0  0  0  0  0  0  0  0  0
   29.8820  108.7820   34.3680 C   0  0  2  0  0  0  0  0  0  0  0  0
   28.4770  109.0600   34.6510 O   0  0  0  0  0  0  0  0  0  0  0  0
   30.0710  107.2680   34.1240 C   0  0  2  0  0  0  0  0  0  0  0  0
   29.2460  106.9060   33.0340 O   0  0  0  0  0  0  0  0  0  0  0  0
   29.7040  106.4730   35.3890 C   0  0  1  0  0  0  0  0  0  0  0  0
   29.9710  105.1030   35.1670 O   0  0  0  0  0  0  0  0  0  0  0  0
   30.5390  106.9650   36.5830 C   0  0  1  0  0  0  0  0  0  0  0  0
   30.3230  108.4750   36.7930 C   0  0  2  0  0  0  0  0  0  0  0  0
   30.6550  109.1500   35.5440 O   0  0  0  0  0  0  0  0  0  0  0  0
   31.2100  109.0860   37.8870 C   0  0  0  0  0  0  0  0  0  0  0  0
   32.5830  108.8500   37.6520 O   0  0  0  0  0  0  0  0  0  0  0  0
   27.3420   92.8280   29.2780 H   0  0  0  0  0  0  0  0  0  0  0  0
   28.2500   96.2830   30.3670 H   0  0  0  0  0  0  0  0  0  0  0  0
   28.3480   93.6370   31.8130 H   0  0  0  0  0  0  0  0  0  0  0  0
   30.2460   95.9660   32.0780 H   0  0  0  0  0  0  0  0  0  0  0  0
   26.6580   96.5110   28.6200 H   0  0  0  0  0  0  0  0  0  0  0  0
   25.3960   96.5450   29.8410 H   0  0  0  0  0  0  0  0  0  0  0  0
   23.9920   95.1110   28.6520 H   0  0  0  0  0  0  0  0  0  0  0  0
   24.7160   96.1270   27.4110 H   0  0  0  0  0  0  0  0  0  0  0  0
   24.9400   93.1940   27.8810 H   0  0  0  0  0  0  0  0  0  0  0  0
   24.0240   94.1230   26.0320 H   0  0  0  0  0  0  0  0  0  0  0  0
   27.2100   92.9960   26.9580 H   0  0  0  0  0  0  0  0  0  0  0  0
   27.3630   94.7560   26.9490 H   0  0  0  0  0  0  0  0  0  0  0  0
   29.4150   93.4090   28.1490 H   0  0  0  0  0  0  0  0  0  0  0  0
   29.1160   95.1260   28.4370 H   0  0  0  0  0  0  0  0  0  0  0  0
   29.8990   92.9530   30.3750 H   0  0  0  0  0  0  0  0  0  0  0  0
   31.3980   94.2560   29.3150 H   0  0  0  0  0  0  0  0  0  0  0  0
   31.6420   94.1220   32.5270 H   0  0  0  0  0  0  0  0  0  0  0  0
   30.3490   93.2510   33.3950 H   0  0  0  0  0  0  0  0  0  0  0  0
   31.0850   94.2520   35.2900 H   0  0  0  0  0  0  0  0  0  0  0  0
   32.1490   95.3600   34.4050 H   0  0  0  0  0  0  0  0  0  0  0  0
   30.6010   96.9570   34.1040 H   0  0  0  0  0  0  0  0  0  0  0  0
   30.9840   96.9100   36.3970 H   0  0  0  0  0  0  0  0  0  0  0  0
   28.0590   97.6950   36.1220 H   0  0  0  0  0  0  0  0  0  0  0  0
   29.3540   98.5430   35.2480 H   0  0  0  0  0  0  0  0  0  0  0  0
   29.2220   98.2050   38.2760 H   0  0  0  0  0  0  0  0  0  0  0  0
   30.5280   99.0320   37.3470 H   0  0  0  0  0  0  0  0  0  0  0  0
   29.6890   96.0090   38.1490 H   0  0  0  0  0  0  0  0  0  0  0  0
   29.9450   94.6710   37.0510 H   0  0  0  0  0  0  0  0  0  0  0  0
   28.3820   95.5090   37.0800 H   0  0  0  0  0  0  0  0  0  0  0  0
   28.6610   93.8960   34.9890 H   0  0  0  0  0  0  0  0  0  0  0  0
   27.3820   95.1080   35.1660 H   0  0  0  0  0  0  0  0  0  0  0  0
   27.4250   94.0690   33.7570 H   0  0  0  0  0  0  0  0  0  0  0  0
   27.3780   97.1820   34.0140 H   0  0  0  0  0  0  0  0  0  0  0  0
   28.0620   98.5850   32.4010 H   0  0  0  0  0  0  0  0  0  0  0  0
   26.4770   97.1100   31.7080 H   0  0  0  0  0  0  0  0  0  0  0  0
   26.3200   95.6240   32.6070 H   0  0  0  0  0  0  0  0  0  0  0  0
   24.9650   94.5740   31.2470 H   0  0  0  0  0  0  0  0  0  0  0  0
   25.1190   93.2970   30.0550 H   0  0  0  0  0  0  0  0  0  0  0  0
   26.1810   93.3020   31.4520 H   0  0  0  0  0  0  0  0  0  0  0  0
   25.1980  112.9860   33.4320 H   0  0  0  0  0  0  0  0  0  0  0  0
   26.5510  111.5040   31.9650 H   0  0  0  0  0  0  0  0  0  0  0  0
   24.0940  110.3790   32.8300 H   0  0  0  0  0  0  0  0  0  0  0  0
   25.9630  109.3160   34.0160 H   0  0  0  0  0  0  0  0  0  0  0  0
   27.5240  109.3970   31.6430 H   0  0  0  0  0  0  0  0  0  0  0  0
   28.5880  110.7080   33.3130 H   0  0  0  0  0  0  0  0  0  0  0  0
   26.9500  110.7790   35.8930 H   0  0  0  0  0  0  0  0  0  0  0  0
   28.4600  112.6340   36.5550 H   0  0  0  0  0  0  0  0  0  0  0  0
   29.2780  111.0770   36.4590 H   0  0  0  0  0  0  0  0  0  0  0  0
   29.3170  113.1330   34.5030 H   0  0  0  0  0  0  0  0  0  0  0  0
   20.3900  113.1360   37.2880 H   0  0  0  0  0  0  0  0  0  0  0  0
   20.7070  112.2760   34.9810 H   0  0  0  0  0  0  0  0  0  0  0  0
   20.5000  110.2660   36.9750 H   0  0  0  0  0  0  0  0  0  0  0  0
   22.8180  110.4400   36.2080 H   0  0  0  0  0  0  0  0  0  0  0  0
   21.9260  110.8610   33.5430 H   0  0  0  0  0  0  0  0  0  0  0  0
   23.1390  112.7590   34.2480 H   0  0  0  0  0  0  0  0  0  0  0  0
   24.0890  112.4810   37.1390 H   0  0  0  0  0  0  0  0  0  0  0  0
   24.5560  114.9140   37.0210 H   0  0  0  0  0  0  0  0  0  0  0  0
   25.5950  113.9700   35.9560 H   0  0  0  0  0  0  0  0  0  0  0  0
   23.2730  115.4220   35.2090 H   0  0  0  0  0  0  0  0  0  0  0  0
   21.0640  111.7130   43.3550 H   0  0  0  0  0  0  0  0  0  0  0  0
   19.4510  112.3170   41.5460 H   0  0  0  0  0  0  0  0  0  0  0  0
   19.7910  109.5310   41.9670 H   0  0  0  0  0  0  0  0  0  0  0  0
   20.8890  110.1860   39.8960 H   0  0  0  0  0  0  0  0  0  0  0  0
   18.7980  112.0190   39.3110 H   0  0  0  0  0  0  0  0  0  0  0  0
   20.8050  113.2080   39.4710 H   0  0  0  0  0  0  0  0  0  0  0  0
   23.1950  111.4920   40.2850 H   0  0  0  0  0  0  0  0  0  0  0  0
   24.2980  113.6410   40.7640 H   0  0  0  0  0  0  0  0  0  0  0  0
   23.8720  113.4970   39.0580 H   0  0  0  0  0  0  0  0  0  0  0  0
   22.4560  114.9420   41.0440 H   0  0  0  0  0  0  0  0  0  0  0  0
   24.3220  107.0640   45.7260 H   0  0  0  0  0  0  0  0  0  0  0  0
   21.9440  107.3530   45.1070 H   0  0  0  0  0  0  0  0  0  0  0  0
   23.4100  105.6730   43.3500 H   0  0  0  0  0  0  0  0  0  0  0  0
   22.9670  107.8260   42.2690 H   0  0  0  0  0  0  0  0  0  0  0  0
   20.3770  107.8950   43.4370 H   0  0  0  0  0  0  0  0  0  0  0  0
   21.6270  109.7500   44.2280 H   0  0  0  0  0  0  0  0  0  0  0  0
   24.4580  109.7340   43.0780 H   0  0  0  0  0  0  0  0  0  0  0  0
   24.9660  111.4670   44.7730 H   0  0  0  0  0  0  0  0  0  0  0  0
   23.8190  112.0270   43.5570 H   0  0  0  0  0  0  0  0  0  0  0  0
   23.2080  111.1120   46.1740 H   0  0  0  0  0  0  0  0  0  0  0  0
   29.9950  105.4920   43.6530 H   0  0  0  0  0  0  0  0  0  0  0  0
   28.1320  104.9360   45.2210 H   0  0  0  0  0  0  0  0  0  0  0  0
   28.0600  103.5570   42.7430 H   0  0  0  0  0  0  0  0  0  0  0  0
   26.3150  105.2720   42.7880 H   0  0  0  0  0  0  0  0  0  0  0  0
   25.8140  104.7250   45.5300 H   0  0  0  0  0  0  0  0  0  0  0  0
   26.4970  106.9640   45.3220 H   0  0  0  0  0  0  0  0  0  0  0  0
   27.2430  107.7350   42.4640 H   0  0  0  0  0  0  0  0  0  0  0  0
   28.2800  109.7190   43.5060 H   0  0  0  0  0  0  0  0  0  0  0  0
   26.5340  109.6810   43.7510 H   0  0  0  0  0  0  0  0  0  0  0  0
   28.5100  108.8960   45.6270 H   0  0  0  0  0  0  0  0  0  0  0  0
   31.8070  105.1010   37.7570 H   0  0  0  0  0  0  0  0  0  0  0  0
   30.9750  103.4350   39.3990 H   0  0  0  0  0  0  0  0  0  0  0  0
   29.1190  104.1280   37.3680 H   0  0  0  0  0  0  0  0  0  0  0  0
   28.4660  105.1640   39.4760 H   0  0  0  0  0  0  0  0  0  0  0  0
   30.5300  104.6250   41.6570 H   0  0  0  0  0  0  0  0  0  0  0  0
   29.8520  107.2170   40.1800 H   0  0  0  0  0  0  0  0  0  0  0  0
   31.9400  108.1060   41.1650 H   0  0  0  0  0  0  0  0  0  0  0  0
   30.7300  107.7340   42.3900 H   0  0  0  0  0  0  0  0  0  0  0  0
   32.9590  106.1340   41.6630 H   0  0  0  0  0  0  0  0  0  0  0  0
   29.1520  102.5160   40.6230 H   0  0  0  0  0  0  0  0  0  0  0  0
   25.0620  101.8440   39.5490 H   0  0  0  0  0  0  0  0  0  0  0  0
   25.6370  100.1780   39.9100 H   0  0  0  0  0  0  0  0  0  0  0  0
   27.6510   99.4340   39.0320 H   0  0  0  0  0  0  0  0  0  0  0  0
   27.6000  101.0680   41.0740 H   0  0  0  0  0  0  0  0  0  0  0  0
   26.1300  101.7500   41.7910 H   0  0  0  0  0  0  0  0  0  0  0  0
   30.2200  109.3360   33.5020 H   0  0  0  0  0  0  0  0  0  0  0  0
   31.1080  107.0530   33.8640 H   0  0  0  0  0  0  0  0  0  0  0  0
   28.3390  107.1370   33.2490 H   0  0  0  0  0  0  0  0  0  0  0  0
   28.6430  106.6010   35.6110 H   0  0  0  0  0  0  0  0  0  0  0  0
   30.9060  105.0010   34.9770 H   0  0  0  0  0  0  0  0  0  0  0  0
   31.5950  106.7730   36.3820 H   0  0  0  0  0  0  0  0  0  0  0  0
   29.2820  108.6460   37.0690 H   0  0  0  0  0  0  0  0  0  0  0  0
   31.0390  110.1620   37.9230 H   0  0  0  0  0  0  0  0  0  0  0  0
   30.9380  108.6660   38.8520 H   0  0  0  0  0  0  0  0  0  0  0  0
   33.0870  109.2460   38.3670 H   0  0  0  0  0  0  0  0  0  0  0  0
  1  2  1  0  0  0  0
  1 26  1  0  0  0  0
  1117  1  0  0  0  0
  1118  1  0  0  0  0
  2  3  1  0  0  0  0
  2119  1  0  0  0  0
  2120  1  0  0  0  0
  3  4  1  0  0  0  0
  3  5  1  0  0  0  0
  3121  1  0  0  0  0
  4122  1  0  0  0  0
  5  6  1  0  0  0  0
  5123  1  0  0  0  0
  5124  1  0  0  0  0
  6113  1  0  0  0  0
  6  7  1  0  0  0  0
  6 26  1  0  0  0  0
  7  8  1  0  0  0  0
  7125  1  0  0  0  0
  7126  1  0  0  0  0
  8  9  1  0  0  0  0
  8 10  1  0  0  0  0
  8127  1  0  0  0  0
  9128  1  0  0  0  0
 10 11  1  0  0  0  0
 10 25  1  0  0  0  0
 10115  1  0  0  0  0
 11 12  1  0  0  0  0
 11 20  1  0  0  0  0
 11116  1  0  0  0  0
 12 13  1  0  0  0  0
 12129  1  0  0  0  0
 12130  1  0  0  0  0
 13 14  1  0  0  0  0
 13131  1  0  0  0  0
 13132  1  0  0  0  0
 14 15  1  0  0  0  0
 14 20  1  0  0  0  0
 14133  1  0  0  0  0
 15 16  1  0  0  0  0
 15 19  1  0  0  0  0
 15134  1  0  0  0  0
 16 17  1  0  0  0  0
 16135  1  0  0  0  0
 16136  1  0  0  0  0
 17 18  1  0  0  0  0
 17137  1  0  0  0  0
 17138  1  0  0  0  0
 18 99  1  0  0  0  0
 18 28  2  0  0  0  0
 19139  1  0  0  0  0
 19140  1  0  0  0  0
 19141  1  0  0  0  0
 20 21  1  0  0  0  0
 20 22  1  0  0  0  0
 21142  1  0  0  0  0
 21143  1  0  0  0  0
 21144  1  0  0  0  0
 22 23  1  0  0  0  0
 22 24  1  0  0  0  0
 22145  1  0  0  0  0
 23146  1  0  0  0  0
 24 25  1  0  0  0  0
 24147  1  0  0  0  0
 24148  1  0  0  0  0
 25 26  1  0  0  0  0
 25114  1  0  0  0  0
 26 27  1  0  0  0  0
 27149  1  0  0  0  0
 27150  1  0  0  0  0
 27151  1  0  0  0  0
 29 30  1  0  0  0  0
 29 31  1  0  0  0  0
 29 37  1  0  0  0  0
 29152  1  0  0  0  0
 30 46  1  0  0  0  0
 31 32  1  0  0  0  0
 31 33  1  0  0  0  0
 31153  1  0  0  0  0
 32154  1  0  0  0  0
 33 34  1  0  0  0  0
 33 35  1  0  0  0  0
 33155  1  0  0  0  0
 34156  1  0  0  0  0
 35 36  1  0  0  0  0
 35103  1  0  0  0  0
 35157  1  0  0  0  0
 36 37  1  0  0  0  0
 36 38  1  0  0  0  0
 36158  1  0  0  0  0
 38 39  1  0  0  0  0
 38159  1  0  0  0  0
 38160  1  0  0  0  0
 39161  1  0  0  0  0
 40 41  1  0  0  0  0
 40 42  1  0  0  0  0
 40 48  1  0  0  0  0
 40162  1  0  0  0  0
 41 57  1  0  0  0  0
 42 43  1  0  0  0  0
 42 44  1  0  0  0  0
 42163  1  0  0  0  0
 43164  1  0  0  0  0
 44 45  1  0  0  0  0
 44 46  1  0  0  0  0
 44165  1  0  0  0  0
 45166  1  0  0  0  0
 46 47  1  0  0  0  0
 46167  1  0  0  0  0
 47 48  1  0  0  0  0
 47 49  1  0  0  0  0
 47168  1  0  0  0  0
 49 50  1  0  0  0  0
 49169  1  0  0  0  0
 49170  1  0  0  0  0
 50171  1  0  0  0  0
 51 52  1  0  0  0  0
 51 53  1  0  0  0  0
 51 59  1  0  0  0  0
 51172  1  0  0  0  0
 52 68  1  0  0  0  0
 53 54  1  0  0  0  0
 53 55  1  0  0  0  0
 53173  1  0  0  0  0
 54174  1  0  0  0  0
 55 56  1  0  0  0  0
 55 57  1  0  0  0  0
 55175  1  0  0  0  0
 56176  1  0  0  0  0
 57 58  1  0  0  0  0
 57177  1  0  0  0  0
 58 59  1  0  0  0  0
 58 60  1  0  0  0  0
 58178  1  0  0  0  0
 60 61  1  0  0  0  0
 60179  1  0  0  0  0
 60180  1  0  0  0  0
 61181  1  0  0  0  0
 62 63  1  0  0  0  0
 62 64  1  0  0  0  0
 62 70  1  0  0  0  0
 62182  1  0  0  0  0
 63 79  1  0  0  0  0
 64 65  1  0  0  0  0
 64 66  1  0  0  0  0
 64183  1  0  0  0  0
 65184  1  0  0  0  0
 66 67  1  0  0  0  0
 66 68  1  0  0  0  0
 66185  1  0  0  0  0
 67186  1  0  0  0  0
 68 69  1  0  0  0  0
 68187  1  0  0  0  0
 69 70  1  0  0  0  0
 69 71  1  0  0  0  0
 69188  1  0  0  0  0
 71 72  1  0  0  0  0
 71189  1  0  0  0  0
 71190  1  0  0  0  0
 72191  1  0  0  0  0
 73 74  1  0  0  0  0
 73 75  1  0  0  0  0
 73 81  1  0  0  0  0
 73192  1  0  0  0  0
 74 89  1  0  0  0  0
 75 76  1  0  0  0  0
 75 77  1  0  0  0  0
 75193  1  0  0  0  0
 76194  1  0  0  0  0
 77 78  1  0  0  0  0
 77 79  1  0  0  0  0
 77195  1  0  0  0  0
 78196  1  0  0  0  0
 79 80  1  0  0  0  0
 79197  1  0  0  0  0
 80 81  1  0  0  0  0
 80 82  1  0  0  0  0
 80198  1  0  0  0  0
 82 83  1  0  0  0  0
 82199  1  0  0  0  0
 82200  1  0  0  0  0
 83201  1  0  0  0  0
 84 85  1  0  0  0  0
 84 86  1  0  0  0  0
 84 91  1  0  0  0  0
 84202  1  0  0  0  0
 85108  1  0  0  0  0
 86 87  1  0  0  0  0
 86 88  1  0  0  0  0
 86203  1  0  0  0  0
 87204  1  0  0  0  0
 88 89  1  0  0  0  0
 88 94  1  0  0  0  0
 88205  1  0  0  0  0
 89 90  1  0  0  0  0
 89206  1  0  0  0  0
 90 91  1  0  0  0  0
 90 92  1  0  0  0  0
 90207  1  0  0  0  0
 92 93  1  0  0  0  0
 92208  1  0  0  0  0
 92209  1  0  0  0  0
 93210  1  0  0  0  0
 94 95  1  0  0  0  0
 94211  1  0  0  0  0
 95 96  1  0  0  0  0
 95100  2  0  0  0  0
 96 97  1  0  0  0  0
 96215  1  0  0  0  0
 96216  1  0  0  0  0
 97 98  1  0  0  0  0
 97212  1  0  0  0  0
 97213  1  0  0  0  0
 98101  2  0  0  0  0
 98 99  1  0  0  0  0
 99214  1  0  0  0  0
102103  1  0  0  0  0
102104  1  0  0  0  0
102110  1  0  0  0  0
102217  1  0  0  0  0
104105  1  0  0  0  0
104106  1  0  0  0  0
104218  1  0  0  0  0
105219  1  0  0  0  0
106107  1  0  0  0  0
106108  1  0  0  0  0
106220  1  0  0  0  0
107221  1  0  0  0  0
108109  1  0  0  0  0
108222  1  0  0  0  0
109110  1  0  0  0  0
109111  1  0  0  0  0
109223  1  0  0  0  0
111112  1  0  0  0  0
111224  1  0  0  0  0
111225  1  0  0  0  0
112226  1  0  0  0  0
M  END
$$$$
