
  -OEChem-07181914473D

169177  0     1  0  0  0  0  0999 V2000
   25.6250  110.4330   34.1210 C   0  0  2  0  0  0  0  0  0  0  0  0
   24.6580  110.2900   35.2000 O   0  0  0  0  0  0  0  0  0  0  0  0
   25.7310  109.1000   33.3480 C   0  0  2  0  0  0  0  0  0  0  0  0
   24.4530  108.8150   32.8140 O   0  0  0  0  0  0  0  0  0  0  0  0
   26.2070  107.9810   34.2920 C   0  0  1  0  0  0  0  0  0  0  0  0
   26.3830  106.7910   33.5490 O   0  0  0  0  0  0  0  0  0  0  0  0
   27.5440  108.3680   34.9490 C   0  0  1  0  0  0  0  0  0  0  0  0
   27.4190  109.7180   35.6810 C   0  0  2  0  0  0  0  0  0  0  0  0
   26.9180  110.7010   34.7280 O   0  0  0  0  0  0  0  0  0  0  0  0
   28.7490  110.2590   36.2240 C   0  0  0  0  0  0  0  0  0  0  0  0
   29.7280  110.3780   35.2120 O   0  0  0  0  0  0  0  0  0  0  0  0
   25.3480  111.2340   33.4500 H   0  0  0  0  0  0  0  0  0  0  0  0
   26.4420  109.1920   32.5250 H   0  0  0  0  0  0  0  0  0  0  0  0
   23.8220  108.7810   33.5370 H   0  0  0  0  0  0  0  0  0  0  0  0
   25.4580  107.8100   35.0670 H   0  0  0  0  0  0  0  0  0  0  0  0
   27.0420  106.9500   32.8700 H   0  0  0  0  0  0  0  0  0  0  0  0
   28.3080  108.4470   34.1740 H   0  0  0  0  0  0  0  0  0  0  0  0
   26.7340  109.6010   36.5220 H   0  0  0  0  0  0  0  0  0  0  0  0
   28.5790  111.2400   36.6680 H   0  0  0  0  0  0  0  0  0  0  0  0
   29.1200  109.5940   37.0000 H   0  0  0  0  0  0  0  0  0  0  0  0
   29.4190  111.0130   34.5620 H   0  0  0  0  0  0  0  0  0  0  0  0
   21.4290  112.4820   36.8140 C   0  0  2  0  0  0  0  0  0  0  0  0
   21.7960  112.0130   38.1430 O   0  0  0  0  0  0  0  0  0  0  0  0
   21.0940  111.2720   35.9130 C   0  0  2  0  0  0  0  0  0  0  0  0
   20.0260  110.5720   36.5210 O   0  0  0  0  0  0  0  0  0  0  0  0
   22.3310  110.3720   35.7570 C   0  0  1  0  0  0  0  0  0  0  0  0
   22.0310  109.3090   34.8740 O   0  0  0  0  0  0  0  0  0  0  0  0
   23.5110  111.1770   35.1890 C   0  0  1  0  0  0  0  0  0  0  0  0
   23.8110  112.3830   36.1030 C   0  0  2  0  0  0  0  0  0  0  0  0
   22.5830  113.1600   36.2500 O   0  0  0  0  0  0  0  0  0  0  0  0
   24.8800  113.3480   35.5690 C   0  0  0  0  0  0  0  0  0  0  0  0
   24.5590  113.8290   34.2790 O   0  0  0  0  0  0  0  0  0  0  0  0
   20.5780  113.1490   36.8610 H   0  0  0  0  0  0  0  0  0  0  0  0
   20.7770  111.6080   34.9250 H   0  0  0  0  0  0  0  0  0  0  0  0
   20.2930  110.3190   37.4070 H   0  0  0  0  0  0  0  0  0  0  0  0
   22.6090  109.9590   36.7280 H   0  0  0  0  0  0  0  0  0  0  0  0
   21.7910  109.6790   34.0220 H   0  0  0  0  0  0  0  0  0  0  0  0
   23.2560  111.5200   34.1850 H   0  0  0  0  0  0  0  0  0  0  0  0
   24.1540  112.0050   37.0660 H   0  0  0  0  0  0  0  0  0  0  0  0
   24.9640  114.1960   36.2490 H   0  0  0  0  0  0  0  0  0  0  0  0
   25.8440  112.8460   35.5350 H   0  0  0  0  0  0  0  0  0  0  0  0
   23.7400  114.3260   34.3350 H   0  0  0  0  0  0  0  0  0  0  0  0
   21.3320  113.0540   42.1910 C   0  0  2  0  0  0  0  0  0  0  0  0
   22.0130  111.8050   42.5090 O   0  0  0  0  0  0  0  0  0  0  0  0
   20.0410  112.7460   41.4020 C   0  0  2  0  0  0  0  0  0  0  0  0
   19.2140  111.9550   42.2320 O   0  0  0  0  0  0  0  0  0  0  0  0
   20.3890  112.0130   40.0940 C   0  0  1  0  0  0  0  0  0  0  0  0
   19.2090  111.8180   39.3410 O   0  0  0  0  0  0  0  0  0  0  0  0
   21.3840  112.8410   39.2610 C   0  0  1  0  0  0  0  0  0  0  0  0
   22.6400  113.1820   40.0880 C   0  0  2  0  0  0  0  0  0  0  0  0
   22.2080  113.8210   41.3240 O   0  0  0  0  0  0  0  0  0  0  0  0
   23.6000  114.1590   39.3930 C   0  0  0  0  0  0  0  0  0  0  0  0
   22.9590  115.3620   39.0240 O   0  0  0  0  0  0  0  0  0  0  0  0
   21.0990  113.6130   43.0880 H   0  0  0  0  0  0  0  0  0  0  0  0
   19.5130  113.6690   41.1590 H   0  0  0  0  0  0  0  0  0  0  0  0
   19.6990  111.1660   42.4820 H   0  0  0  0  0  0  0  0  0  0  0  0
   20.8300  111.0420   40.3240 H   0  0  0  0  0  0  0  0  0  0  0  0
   18.8290  112.6770   39.1430 H   0  0  0  0  0  0  0  0  0  0  0  0
   20.8970  113.7640   38.9440 H   0  0  0  0  0  0  0  0  0  0  0  0
   23.1880  112.2610   40.2930 H   0  0  0  0  0  0  0  0  0  0  0  0
   24.4220  114.3900   40.0700 H   0  0  0  0  0  0  0  0  0  0  0  0
   24.0130  113.6900   38.5040 H   0  0  0  0  0  0  0  0  0  0  0  0
   22.6510  115.8010   39.8200 H   0  0  0  0  0  0  0  0  0  0  0  0
   23.9280  110.0510   45.8500 C   0  0  2  0  0  0  0  0  0  0  0  0
   24.8620  109.3570   44.9730 O   0  0  0  0  0  0  0  0  0  0  0  0
   22.4830  109.6080   45.5310 C   0  0  2  0  0  0  0  0  0  0  0  0
   22.4190  108.2050   45.6990 O   0  0  0  0  0  0  0  0  0  0  0  0
   22.1060  110.0120   44.0950 C   0  0  1  0  0  0  0  0  0  0  0  0
   20.7580  109.6650   43.8480 O   0  0  0  0  0  0  0  0  0  0  0  0
   22.2770  111.5280   43.9080 C   0  0  1  0  0  0  0  0  0  0  0  0
   23.7340  111.9240   44.2230 C   0  0  2  0  0  0  0  0  0  0  0  0
   24.0420  111.4740   45.5770 O   0  0  0  0  0  0  0  0  0  0  0  0
   24.0190  113.4320   44.1870 C   0  0  0  0  0  0  0  0  0  0  0  0
   23.1540  114.1530   45.0400 O   0  0  0  0  0  0  0  0  0  0  0  0
   24.1500  109.8430   46.8880 H   0  0  0  0  0  0  0  0  0  0  0  0
   21.7800  110.0760   46.2220 H   0  0  0  0  0  0  0  0  0  0  0  0
   23.0680  107.7990   45.1190 H   0  0  0  0  0  0  0  0  0  0  0  0
   22.7450  109.4840   43.3860 H   0  0  0  0  0  0  0  0  0  0  0  0
   20.2030  110.1370   44.4740 H   0  0  0  0  0  0  0  0  0  0  0  0
   21.5910  112.0500   44.5770 H   0  0  0  0  0  0  0  0  0  0  0  0
   24.3820  111.4430   43.4910 H   0  0  0  0  0  0  0  0  0  0  0  0
   25.0490  113.6050   44.5000 H   0  0  0  0  0  0  0  0  0  0  0  0
   23.9090  113.8010   43.1690 H   0  0  0  0  0  0  0  0  0  0  0  0
   23.3080  113.8670   45.9430 H   0  0  0  0  0  0  0  0  0  0  0  0
   28.6730  107.5530   45.1940 C   0  0  2  0  0  0  0  0  0  0  0  0
   28.4390  106.9740   43.8790 O   0  0  0  0  0  0  0  0  0  0  0  0
   27.5970  107.0490   46.1810 C   0  0  2  0  0  0  0  0  0  0  0  0
   27.7010  105.6410   46.2420 O   0  0  0  0  0  0  0  0  0  0  0  0
   26.1990  107.4890   45.7100 C   0  0  1  0  0  0  0  0  0  0  0  0
   25.2400  107.0920   46.6710 O   0  0  0  0  0  0  0  0  0  0  0  0
   26.1510  109.0190   45.5490 C   0  0  1  0  0  0  0  0  0  0  0  0
   27.2490  109.4900   44.5770 C   0  0  2  0  0  0  0  0  0  0  0  0
   28.5240  108.9930   45.0720 O   0  0  0  0  0  0  0  0  0  0  0  0
   27.3780  111.0160   44.4710 C   0  0  0  0  0  0  0  0  0  0  0  0
   27.6080  111.6190   45.7280 O   0  0  0  0  0  0  0  0  0  0  0  0
   29.6590  107.3020   45.5620 H   0  0  0  0  0  0  0  0  0  0  0  0
   27.7760  107.4550   47.1780 H   0  0  0  0  0  0  0  0  0  0  0  0
   27.5900  105.2880   45.3560 H   0  0  0  0  0  0  0  0  0  0  0  0
   25.9650  107.0160   44.7560 H   0  0  0  0  0  0  0  0  0  0  0  0
   25.4540  107.5130   47.5070 H   0  0  0  0  0  0  0  0  0  0  0  0
   26.3080  109.4840   46.5240 H   0  0  0  0  0  0  0  0  0  0  0  0
   27.0320  109.0990   43.5820 H   0  0  0  0  0  0  0  0  0  0  0  0
   28.2080  111.2570   43.8070 H   0  0  0  0  0  0  0  0  0  0  0  0
   26.4680  111.4280   44.0420 H   0  0  0  0  0  0  0  0  0  0  0  0
   28.4450  111.2970   46.0710 H   0  0  0  0  0  0  0  0  0  0  0  0
   30.6200  105.2940   40.6880 C   0  0  2  0  0  0  0  0  0  0  0  0
   29.5480  105.7280   39.7980 O   0  0  0  0  0  0  0  0  0  0  0  0
   30.0510  104.3220   41.7440 C   0  0  2  0  0  0  0  0  0  0  0  0
   29.5160  103.2100   41.0540 O   0  0  0  0  0  0  0  0  0  0  0  0
   28.9750  105.0330   42.5820 C   0  0  2  0  0  0  0  0  0  0  0  0
   29.5540  106.2970   43.2430 C   0  0  1  0  0  0  0  0  0  0  0  0
   30.1560  107.2330   42.1720 C   0  0  2  0  0  0  0  0  0  0  0  0
   31.1170  106.4630   41.3890 O   0  0  0  0  0  0  0  0  0  0  0  0
   30.9160  108.4540   42.7150 C   0  0  0  0  0  0  0  0  0  0  0  0
   32.0090  108.0530   43.5960 N   0  0  0  0  0  0  0  0  0  0  0  0
   28.5160  104.1550   43.5900 O   0  0  0  0  0  0  0  0  0  0  0  0
   32.1920  108.4880   44.8520 C   0  0  0  0  0  0  0  0  0  0  0  0
   33.3600  107.8600   45.6230 C   0  0  0  0  0  0  0  0  0  0  0  0
   34.2740  109.0010   46.1290 C   0  0  2  0  0  0  0  0  0  0  0  0
   34.8840  109.6620   44.9800 N   0  0  0  0  0  0  0  0  0  0  0  0
   31.4810  109.3370   45.3900 O   0  0  0  0  0  0  0  0  0  0  0  0
   37.3900  107.2930   48.5590 C   0  0  0  0  0  0  0  0  0  0  0  0
   38.3720  106.7530   49.3390 O   0  0  0  0  0  0  0  0  0  0  0  0
   37.3590  107.0020   47.1970 C   0  0  0  0  0  0  0  0  0  0  0  0
   36.3550  107.5530   46.4080 C   0  0  0  0  0  0  0  0  0  0  0  0
   35.3860  108.3920   46.9710 C   0  0  0  0  0  0  0  0  0  0  0  0
   35.4360  108.6700   48.3390 C   0  0  0  0  0  0  0  0  0  0  0  0
   36.4350  108.1240   49.1380 C   0  0  0  0  0  0  0  0  0  0  0  0
   31.4170  104.8140   40.1360 H   0  0  0  0  0  0  0  0  0  0  0  0
   30.8430  103.9730   42.4090 H   0  0  0  0  0  0  0  0  0  0  0  0
   28.8580  103.5270   40.4300 H   0  0  0  0  0  0  0  0  0  0  0  0
   28.1350  105.3110   41.9430 H   0  0  0  0  0  0  0  0  0  0  0  0
   28.1150  103.3910   43.1690 H   0  0  0  0  0  0  0  0  0  0  0  0
   30.3260  105.9980   43.9540 H   0  0  0  0  0  0  0  0  0  0  0  0
   29.3460  107.6010   41.5410 H   0  0  0  0  0  0  0  0  0  0  0  0
   31.3330  109.0090   41.8750 H   0  0  0  0  0  0  0  0  0  0  0  0
   30.2220  109.1100   43.2360 H   0  0  0  0  0  0  0  0  0  0  0  0
   32.6470  107.3600   43.2310 H   0  0  0  0  0  0  0  0  0  0  0  0
   33.9180  107.1780   44.9790 H   0  0  0  0  0  0  0  0  0  0  0  0
   32.9640  107.2980   46.4700 H   0  0  0  0  0  0  0  0  0  0  0  0
   33.7070  109.7130   46.7130 H   0  0  0  0  0  0  0  0  0  0  0  0
   35.4120  108.9780   44.4570 H   0  0  0  0  0  0  0  0  0  0  0  0
   35.5070  110.3830   45.3160 H   0  0  0  0  0  0  0  0  0  0  0  0
   38.2690  107.0390   50.2680 H   0  0  0  0  0  0  0  0  0  0  0  0
   38.0910  106.3680   46.7670 H   0  0  0  0  0  0  0  0  0  0  0  0
   36.3300  107.3300   45.3720 H   0  0  0  0  0  0  0  0  0  0  0  0
   34.7070  109.3030   48.7770 H   0  0  0  0  0  0  0  0  0  0  0  0
   36.4680  108.3390   50.1750 H   0  0  0  0  0  0  0  0  0  0  0  0
   29.0160  106.5180   35.6630 C   0  0  2  0  0  0  0  0  0  0  0  0
   27.8520  107.3490   35.9350 O   0  0  0  0  0  0  0  0  0  0  0  0
   28.7580  105.0790   36.1670 C   0  0  2  0  0  0  0  0  0  0  0  0
   27.5970  104.6010   35.5160 O   0  0  0  0  0  0  0  0  0  0  0  0
   28.5810  105.0710   37.6950 C   0  0  1  0  0  0  0  0  0  0  0  0
   28.4210  103.7380   38.1400 O   0  0  0  0  0  0  0  0  0  0  0  0
   29.8180  105.6850   38.3710 C   0  0  1  0  0  0  0  0  0  0  0  0
   30.0130  107.1260   37.8600 C   0  0  2  0  0  0  0  0  0  0  0  0
   30.1370  107.0710   36.4070 O   0  0  0  0  0  0  0  0  0  0  0  0
   31.2680  107.8360   38.3840 C   0  0  0  0  0  0  0  0  0  0  0  0
   32.4390  107.0790   38.1560 O   0  0  0  0  0  0  0  0  0  0  0  0
   29.2340  106.4970   34.6030 H   0  0  0  0  0  0  0  0  0  0  0  0
   29.5960  104.4310   35.9080 H   0  0  0  0  0  0  0  0  0  0  0  0
   26.8700  105.1970   35.7130 H   0  0  0  0  0  0  0  0  0  0  0  0
   27.6950  105.6460   37.9670 H   0  0  0  0  0  0  0  0  0  0  0  0
   29.1990  103.2370   37.8860 H   0  0  0  0  0  0  0  0  0  0  0  0
   30.6930  105.0810   38.1260 H   0  0  0  0  0  0  0  0  0  0  0  0
   29.1460  107.7160   38.1590 H   0  0  0  0  0  0  0  0  0  0  0  0
   31.3670  108.7990   37.8820 H   0  0  0  0  0  0  0  0  0  0  0  0
   31.1620  108.0230   39.4500 H   0  0  0  0  0  0  0  0  0  0  0  0
   32.5570  106.9780   37.2090 H   0  0  0  0  0  0  0  0  0  0  0  0
  1  2  1  0  0  0  0
  1  3  1  0  0  0  0
  1  9  1  0  0  0  0
  1 12  1  0  0  0  0
  2 28  1  0  0  0  0
  3  4  1  0  0  0  0
  3  5  1  0  0  0  0
  3 13  1  0  0  0  0
  4 14  1  0  0  0  0
  5  6  1  0  0  0  0
  5  7  1  0  0  0  0
  5 15  1  0  0  0  0
  6 16  1  0  0  0  0
  7  8  1  0  0  0  0
  7 17  1  0  0  0  0
  7150  1  0  0  0  0
  8  9  1  0  0  0  0
  8 10  1  0  0  0  0
  8 18  1  0  0  0  0
 10 11  1  0  0  0  0
 10 19  1  0  0  0  0
 10 20  1  0  0  0  0
 11 21  1  0  0  0  0
 22 23  1  0  0  0  0
 22 24  1  0  0  0  0
 22 30  1  0  0  0  0
 22 33  1  0  0  0  0
 23 49  1  0  0  0  0
 24 25  1  0  0  0  0
 24 26  1  0  0  0  0
 24 34  1  0  0  0  0
 25 35  1  0  0  0  0
 26 27  1  0  0  0  0
 26 28  1  0  0  0  0
 26 36  1  0  0  0  0
 27 37  1  0  0  0  0
 28 29  1  0  0  0  0
 28 38  1  0  0  0  0
 29 30  1  0  0  0  0
 29 31  1  0  0  0  0
 29 39  1  0  0  0  0
 31 32  1  0  0  0  0
 31 40  1  0  0  0  0
 31 41  1  0  0  0  0
 32 42  1  0  0  0  0
 43 44  1  0  0  0  0
 43 45  1  0  0  0  0
 43 51  1  0  0  0  0
 43 54  1  0  0  0  0
 44 70  1  0  0  0  0
 45 46  1  0  0  0  0
 45 47  1  0  0  0  0
 45 55  1  0  0  0  0
 46 56  1  0  0  0  0
 47 48  1  0  0  0  0
 47 49  1  0  0  0  0
 47 57  1  0  0  0  0
 48 58  1  0  0  0  0
 49 50  1  0  0  0  0
 49 59  1  0  0  0  0
 50 51  1  0  0  0  0
 50 52  1  0  0  0  0
 50 60  1  0  0  0  0
 52 53  1  0  0  0  0
 52 61  1  0  0  0  0
 52 62  1  0  0  0  0
 53 63  1  0  0  0  0
 64 65  1  0  0  0  0
 64 66  1  0  0  0  0
 64 72  1  0  0  0  0
 64 75  1  0  0  0  0
 65 91  1  0  0  0  0
 66 67  1  0  0  0  0
 66 68  1  0  0  0  0
 66 76  1  0  0  0  0
 67 77  1  0  0  0  0
 68 69  1  0  0  0  0
 68 70  1  0  0  0  0
 68 78  1  0  0  0  0
 69 79  1  0  0  0  0
 70 71  1  0  0  0  0
 70 80  1  0  0  0  0
 71 72  1  0  0  0  0
 71 73  1  0  0  0  0
 71 81  1  0  0  0  0
 73 74  1  0  0  0  0
 73 82  1  0  0  0  0
 73 83  1  0  0  0  0
 74 84  1  0  0  0  0
 85 86  1  0  0  0  0
 85 87  1  0  0  0  0
 85 93  1  0  0  0  0
 85 96  1  0  0  0  0
 86111  1  0  0  0  0
 87 88  1  0  0  0  0
 87 89  1  0  0  0  0
 87 97  1  0  0  0  0
 88 98  1  0  0  0  0
 89 90  1  0  0  0  0
 89 91  1  0  0  0  0
 89 99  1  0  0  0  0
 90100  1  0  0  0  0
 91 92  1  0  0  0  0
 91101  1  0  0  0  0
 92 93  1  0  0  0  0
 92 94  1  0  0  0  0
 92102  1  0  0  0  0
 94 95  1  0  0  0  0
 94103  1  0  0  0  0
 94104  1  0  0  0  0
 95105  1  0  0  0  0
106107  1  0  0  0  0
106108  1  0  0  0  0
106113  1  0  0  0  0
106129  1  0  0  0  0
107155  1  0  0  0  0
108109  1  0  0  0  0
108110  1  0  0  0  0
108130  1  0  0  0  0
109131  1  0  0  0  0
110111  1  0  0  0  0
110132  1  0  0  0  0
110116  1  0  0  0  0
111112  1  0  0  0  0
111134  1  0  0  0  0
112113  1  0  0  0  0
112114  1  0  0  0  0
112135  1  0  0  0  0
114115  1  0  0  0  0
114136  1  0  0  0  0
114137  1  0  0  0  0
115138  1  0  0  0  0
115117  1  0  0  0  0
116133  1  0  0  0  0
117121  2  0  0  0  0
117118  1  0  0  0  0
118139  1  0  0  0  0
118140  1  0  0  0  0
118119  1  0  0  0  0
119141  1  0  0  0  0
119120  1  0  0  0  0
119126  1  0  0  0  0
120142  1  0  0  0  0
120143  1  0  0  0  0
122123  1  0  0  0  0
122124  1  0  0  0  0
122128  2  0  0  0  0
123144  1  0  0  0  0
124145  1  0  0  0  0
124125  2  0  0  0  0
125146  1  0  0  0  0
125126  1  0  0  0  0
126127  2  0  0  0  0
127147  1  0  0  0  0
127128  1  0  0  0  0
128148  1  0  0  0  0
149150  1  0  0  0  0
149151  1  0  0  0  0
149157  1  0  0  0  0
149160  1  0  0  0  0
151152  1  0  0  0  0
151153  1  0  0  0  0
151161  1  0  0  0  0
152162  1  0  0  0  0
153154  1  0  0  0  0
153155  1  0  0  0  0
153163  1  0  0  0  0
154164  1  0  0  0  0
155156  1  0  0  0  0
155165  1  0  0  0  0
156157  1  0  0  0  0
156158  1  0  0  0  0
156166  1  0  0  0  0
158159  1  0  0  0  0
158167  1  0  0  0  0
158168  1  0  0  0  0
159169  1  0  0  0  0
M  END
$$$$
